12

C         -1.99886        8.67692       -1.02879
C         -0.81603        9.24218       -1.49896
C          0.00649        8.52028       -2.36034
C         -0.35382        7.23311       -2.75154
C         -1.53664        6.66785       -2.28137
C         -2.35916        7.38976       -1.42000
H         -2.60834        9.21185       -0.39051
H         -0.54905       10.19597       -1.20908
H          0.88296        8.93913       -2.70873
H          0.25567        6.69818       -3.38982
H         -1.80363        5.71407       -2.57125
H         -3.23563        6.97090       -1.07160
